ver_1.0
     RDKit          2D

  1  0  0  0  0  0  0  0  0  0999 V2000
    0.0000    0.0000    0.0000 C   0  0  0  0  0  0  0  0  0  0  0  0
M  END
>  <ref_mols>  (1) 
reference molecules

>  <energy minimised>  (1) 
boolean: was the molecule energy minimised?

>  <creator>  (1) 
the person who ran the algorithm

>  <version>  (1) 


>  <ref_pdb>  (1) 
the reference pdb this lig should be shown with

>  <fragmenstein comRMSD>  (1) 
fragmentstein RMSD

>  <fragmenstein score>  (1) 
score from fragmenstein

>  <minimised comRMSD>  (1) 


>  <score>  (1) 
pyRosetta delta delta G

>  <original SMILES>  (1) 
molecule smiles

$$$$
MAK-UNK-176-5_ACR2
     RDKit          3D

 35 38  0  0  0  0  0  0  0  0999 V2000
    8.7420   -3.6200   18.5420 S   0  0  0  0  0  0  0  0  0  0  0  0
    7.2540   -2.6050   18.4920 C   0  0  0  0  0  0  0  0  0  0  0  0
    9.3460    6.1280   25.6000 C   0  0  0  0  0  0  0  0  0  0  0  0
    8.8990    8.4670   25.1700 N   0  0  0  0  0  0  0  0  0  0  0  0
    8.9200    5.1230   26.2370 O   0  0  0  0  0  0  0  0  0  0  0  0
    9.1910    7.4990   26.1900 C   0  0  0  0  0  0  0  0  0  0  0  0
    4.9400   10.3750   26.9380 N   0  0  0  0  0  0  0  0  0  0  0  0
    7.8300   -0.0030   15.9250 O   0  0  0  0  0  0  0  0  0  0  0  0
    7.4660    8.4350   24.8570 C   0  0  0  0  0  0  0  0  0  0  0  0
    9.9760    5.9600   24.3230 N   0  0  0  0  0  0  0  0  0  0  0  0
    6.7030    9.4050   25.7110 C   0  0  0  0  0  0  0  0  0  0  0  0
    5.3840    2.1070   19.6970 N   0  0  0  0  0  0  0  0  0  0  0  0
    5.2660    9.3110   26.1860 C   0  0  0  0  0  0  0  0  0  0  0  0
    6.6620    0.2390   17.9440 N   0  0  0  0  0  0  0  0  0  0  0  0
    6.0250   11.1200   26.9780 C   0  0  0  0  0  0  0  0  0  0  0  0
    6.1700   12.3480   27.6530 C   0  0  0  0  0  0  0  0  0  0  0  0
    7.3830   13.0340   27.6110 C   0  0  0  0  0  0  0  0  0  0  0  0
    8.4570   12.5100   26.9000 C   0  0  0  0  0  0  0  0  0  0  0  0
    8.3330   11.2870   26.2200 C   0  0  0  0  0  0  0  0  0  0  0  0
    7.1030   10.6020   26.2700 C   0  0  0  0  0  0  0  0  0  0  0  0
    9.2180    6.2360   23.0980 C   0  0  0  0  0  0  0  0  0  0  0  0
    8.5090    5.1950   22.5060 C   0  0  0  0  0  0  0  0  0  0  0  0
    7.3700    5.4740   21.7390 C   0  0  0  0  0  0  0  0  0  0  0  0
    6.6390    4.4270   21.1380 C   0  0  0  0  0  0  0  0  0  0  0  0
    7.1210    2.9960   21.3420 C   0  0  0  0  0  0  0  0  0  0  0  0
    6.3960    1.7850   20.7370 C   0  0  0  0  0  0  0  0  0  0  0  0
    5.9550    2.5120   18.4210 C   0  0  0  0  0  0  0  0  0  0  0  0
    7.1210    1.5830   18.1510 C   0  0  0  0  0  0  0  0  0  0  0  0
    7.3260   -0.5660   16.9360 C   0  0  0  0  0  0  0  0  0  0  0  0
    5.2620   -0.0050   18.2890 C   0  0  0  0  0  0  0  0  0  0  0  0
    4.6540    0.8830   19.4270 C   0  0  0  0  0  0  0  0  0  0  0  0
    8.2720    2.7880   22.1180 C   0  0  0  0  0  0  0  0  0  0  0  0
    8.9470    3.8710   22.6860 C   0  0  0  0  0  0  0  0  0  0  0  0
    7.4400   -2.0660   17.0370 C   0  0  0  0  0  0  0  0  0  0  0  0
    9.6310   13.1910   26.8670 F   0  0  0  0  0  0  0  0  0  0  0  0
  1  2  1  0
  2 34  1  0
  3  5  1  0
  3  6  1  0
  3 10  1  0
  4  9  1  0
  4  6  1  0
  7 15  1  0
  7 13  1  0
  8 29  1  0
  9 11  1  0
 10 21  1  0
 11 13  1  0
 11 20  1  0
 12 27  1  0
 12 31  1  0
 12 26  1  0
 14 29  1  0
 14 30  1  0
 14 28  1  0
 15 16  1  0
 15 20  1  0
 16 17  1  0
 17 18  1  0
 18 19  1  0
 18 35  1  0
 19 20  1  0
 21 22  1  0
 22 23  1  0
 22 33  1  0
 23 24  1  0
 24 25  1  0
 25 26  1  0
 25 32  1  0
 27 28  1  0
 29 34  1  0
 30 31  1  0
 32 33  1  0
M  CHG  2   4   1  12   1
M  END
>  <ref_mols>  (2) 
x0104_0,x0692_0

>  <energy minimised>  (2) 
TRUE

>  <creator>  (2) 
Matteo Ferla

>  <version>  (2) 
Fragmenstein 0.3 + Egor 0.4

>  <ref_pdb>  (2) 
Mpro-x0692_0/Mpro-x0692_0_apo.pdb2

>  <fragmenstein comRMSD>  (2) 
0.6534330264074504

>  <fragmenstein score>  (2) 
1325.6667490764899

>  <minimised comRMSD>  (2) 
11.076458305794322

>  <score>  (2) 
-2.2837976493290726

>  <original SMILES>  (2) 
*CCC(=O)N1CC[NH+](Cc2ccc(CNC(=O)C[NH2+]Cc3c[nH]c4ccc(F)cc34)cc2)CC1lknljnlnln

$$$$
MAK-UNK-095-2_NIT3
     RDKit          3D

 28 29  0  0  0  0  0  0  0  0999 V2000
    7.4750   -4.6230   19.9710 S   0  0  0  0  0  0  0  0  0  0  0  0
    7.4990   -3.1200   18.9850 C   0  0  2  0  0  0  0  0  0  0  0  0
   13.6770    5.4960   19.8510 C   0  0  0  0  0  0  0  0  0  0  0  0
   14.5400    4.8240   18.9300 N   0  0  0  0  0  0  0  0  0  0  0  0
   11.7910   -2.5240   22.4500 O   0  0  0  0  0  0  0  0  0  0  0  0
   15.2270    3.7160   19.5230 C   0  0  0  0  0  0  0  0  0  0  0  0
   13.3660    1.2190   21.6180 N   0  0  0  0  0  0  0  0  0  0  0  0
   14.4160    2.8730   20.4650 C   0  0  0  0  0  0  0  0  0  0  0  0
   11.4550   -0.2890   22.1060 N   0  0  0  0  0  0  0  0  0  0  0  0
   13.6040    3.5850   21.5110 C   0  0  0  0  0  0  0  0  0  0  0  0
    6.9750   -1.8610   21.1110 N   0  0  0  0  0  0  0  0  0  0  0  0
   12.9300    2.5080   22.2450 C   0  0  0  0  0  0  0  0  0  0  0  0
    8.7050   -2.9110   19.4040 N   0  0  0  0  0  0  0  0  0  0  0  0
   11.9900    2.7290   23.4050 C   0  0  0  0  0  0  0  0  0  0  0  0
   10.7000    3.0950   24.1720 C   0  0  0  0  0  0  0  0  0  0  0  0
    9.3440    3.5570   23.6520 C   0  0  0  0  0  0  0  0  0  0  0  0
    9.3230    3.6460   22.2880 C   0  0  0  0  0  0  0  0  0  0  0  0
   10.1960    3.3140   23.2070 C   0  0  0  0  0  0  0  0  0  0  0  0
   11.1720    3.0640   22.4470 C   0  0  0  0  0  0  0  0  0  0  0  0
   12.9110   -0.1070   22.0770 C   0  0  2  0  0  0  0  0  0  0  0  0
   13.4460   -0.3850   23.4390 C   0  0  0  0  0  0  0  0  0  0  0  0
   11.0140   -1.5600   22.2110 C   0  0  0  0  0  0  0  0  0  0  0  0
    9.6240   -1.7440   22.0430 C   0  0  0  0  0  0  0  0  0  0  0  0
    8.8650   -0.6050   21.7410 C   0  0  0  0  0  0  0  0  0  0  0  0
    7.7330   -0.7580   20.9350 C   0  0  0  0  0  0  0  0  0  0  0  0
   14.2310    1.4980   20.5910 C   0  0  0  0  0  0  0  0  0  0  0  0
    6.4420   -2.3750   19.8270 C   0  0  0  0  0  0  0  0  0  0  0  0
   11.3320    3.1170   21.1240 F   0  0  0  0  0  0  0  0  0  0  0  0
  2  1  1  0
  2 13  1  1
  2 27  1  0
  3  4  1  0
  4  6  1  0
  5 22  1  0
  6  8  1  0
  7 12  1  0
  7 26  1  0
  7 20  1  0
  8 26  1  0
  8 10  1  0
  9 20  1  0
  9 22  1  0
 10 12  1  0
 11 27  1  0
 11 25  1  0
 12 14  1  0
 14 15  1  0
 14 19  1  0
 15 16  1  0
 16 17  1  0
 17 18  1  0
 18 19  1  0
 19 28  1  0
 20 21  1  1
 22 23  1  0
 23 24  1  0
 24 25  1  0
M  CHG  1   4   1
M  END
>  <ref_mols>  (3) 
x0072_0,x0104_0,x0749_0

>  <energy minimised>  (3) 
TRUE

>  <creator>  (3) 
Matteo Ferla

>  <version>  (3) 
Fragmenstein 0.3 + Egor 0.4

>  <ref_pdb>  (3) 
Mpro-x0749_0/Mpro-x0749_0_apo.pdb

>  <fragmenstein comRMSD>  (3) 
0.8939411134329346

>  <fragmenstein score>  (3) 
3494.116572217177

>  <minimised comRMSD>  (3) 
5.363119980810743

>  <score>  (3) 
-2.8941756691979856

>  <original SMILES>  (3) 


$$$$
SAL-INS-1c7-1_ACR2
     RDKit          3D

 28 30  0  0  0  0  0  0  0  0999 V2000
    7.2710   -5.2280   19.8010 S   0  0  0  0  0  0  0  0  0  0  0  0
    8.0130   -3.9760   20.8610 C   0  0  0  0  0  0  0  0  0  0  0  0
    1.7830   -5.4460   23.2880 C   0  0  0  0  0  0  0  0  0  0  0  0
    3.9470   -5.8680   24.2840 N   0  0  0  0  0  0  0  0  0  0  0  0
    4.2330   -5.7190   26.6060 O   0  0  0  0  0  0  0  0  0  0  0  0
    2.5410   -6.1280   24.2710 C   0  0  0  0  0  0  0  0  0  0  0  0
    8.2300   -1.6880   22.5150 N   0  0  0  0  0  0  0  0  0  0  0  0
    6.9600   -0.5300   20.9010 O   0  0  0  0  0  0  0  0  0  0  0  0
    2.3340   -7.6380   24.1290 C   0  0  0  0  0  0  0  0  0  0  0  0
    4.6830   -5.7100   22.9840 C   0  0  0  0  0  0  0  0  0  0  0  0
    4.5290   -5.2790   25.4650 C   0  0  0  0  0  0  0  0  0  0  0  0
    5.4920   -4.1510   25.3180 C   0  0  0  0  0  0  0  0  0  0  0  0
    5.3050   -2.9660   26.3100 C   0  0  0  0  0  0  0  0  0  0  0  0
    6.1750   -1.8610   26.2060 C   0  0  0  0  0  0  0  0  0  0  0  0
    7.2600   -1.8780   25.1270 C   0  0  0  0  0  0  0  0  0  0  0  0
    7.3730   -3.0480   24.2320 C   0  0  0  0  0  0  0  0  0  0  0  0
    6.5120   -4.1380   24.3380 C   0  0  0  0  0  0  0  0  0  0  0  0
    8.4510   -2.9770   23.2090 C   0  0  0  0  0  0  0  0  0  0  0  0
    7.3700   -1.6400   21.3540 C   0  0  0  0  0  0  0  0  0  0  0  0
    8.3820   -0.4660   23.3540 C   0  0  0  0  0  0  0  0  0  0  0  0
    8.2600   -0.7620   24.8800 C   0  0  1  0  0  0  0  0  0  0  0  0
    7.9840    0.5030   25.6990 C   0  0  0  0  0  0  0  0  0  0  0  0
    8.7860    0.8060   26.9230 C   0  0  0  0  0  0  0  0  0  0  0  0
    8.5150    1.9620   27.6500 C   0  0  0  0  0  0  0  0  0  0  0  0
    7.5100    2.8230   27.2430 C   0  0  0  0  0  0  0  0  0  0  0  0
    6.7400    2.5730   26.1070 C   0  0  0  0  0  0  0  0  0  0  0  0
    6.9710    1.4180   25.3340 C   0  0  0  0  0  0  0  0  0  0  0  0
    6.9290   -2.9010   20.6460 C   0  0  0  0  0  0  0  0  0  0  0  0
  1  2  1  0
  2 28  1  0
  3  6  1  0
  4  6  1  0
  4 10  1  0
  4 11  1  0
  5 11  1  0
  6  9  1  0
  7 18  1  0
  7 19  1  0
  7 20  1  0
  8 19  1  0
 11 12  1  0
 12 17  1  0
 12 13  1  0
 13 14  1  0
 14 15  1  0
 15 21  1  0
 15 16  1  0
 16 17  1  0
 16 18  1  0
 19 28  1  0
 20 21  1  0
 21 22  1  1
 22 23  1  0
 22 27  1  0
 23 24  1  0
 24 25  1  0
 25 26  1  0
 26 27  1  0
M  END
>  <ref_mols>  (4) 
x0734_0,x1374_0,x1385_0,x1392_0,x1458_0

>  <energy minimised>  (4) 
TRUE

>  <creator>  (4) 


>  <version>  (4) 
Fragmenstein 0.3 + Egor 0.4

>  <ref_pdb>  (4) 
Mpro-x1458_0/Mpro-x1458_0_apo.pdb

>  <fragmenstein comRMSD>  (4) 
0.9925157031768473

>  <fragmenstein score>  (4) 


>  <minimised comRMSD>  (4) 
4.797451527414815

>  <score>  (4) 
-5.701788813843629

>  <original SMILES>  (4) 
*CCC(=O)N1Cc2cc(C(=O)N(C)C(C)C)ccc2C(c2ccccc2)C1

$$$$
